# File generated by Flopy version 3.3.3 on 02/05/2021 at 13:07:20.
# Originally run for 5844.0 days and 5844 time steps
BEGIN options
  TIME_UNITS  days
END options

BEGIN dimensions
  NPER  1
END dimensions

BEGIN perioddata
    5844.00000000  5844    1.00000000
END perioddata
