# File generated by Flopy version 3.3.3 on 02/05/2021 at 13:07:20.
BEGIN griddata
  strt  LAYERED
    open/close ../common/sshead01.txt
    open/close ../common/sshead02.txt
END griddata
