# File generated by Flopy version 3.3.3 on 02/05/2021 at 13:07:20.
BEGIN options
  BOUNDNAMES
  SAVE_FLOWS
  WATER_CONTENT FILEOUT output/gwf_sagehen-gsf.water_content.bin
  BUDGET  FILEOUT  output/gwf_sagehen-gsf.uzf.cbc
  SIMULATE_ET
  LINEAR_GWET
  MOVER
END options

BEGIN dimensions
  NUZFCELLS  6772
  NTRAILWAVES  15
  NWAVESETS  250
END dimensions

BEGIN packagedata
  open/close ../common/uzf_packagedata.txt
END packagedata

BEGIN period  1
  open/close ../common/uzf_spd.txt
END period 1
