# File generated by Flopy version 3.3.3 on 02/05/2021 at 13:07:20.
BEGIN options
  BUDGET  FILEOUT  output/gwf_sagehen-gsf.cbc
  HEAD  FILEOUT  output/gwf_sagehen-gsf.hds
  HEAD  PRINT_FORMAT  COLUMNS  10  WIDTH  15  DIGITS  6  GENERAL
END options

BEGIN period  1
  SAVE  HEAD  ALL
  SAVE  BUDGET  ALL
  PRINT  BUDGET  ALL
END period  1
