# File generated by Flopy version 3.3.3 on 02/05/2021 at 13:07:20.
BEGIN options
END options

BEGIN griddata
  iconvert  LAYERED
    constant 1
    constant 0
  ss
    CONSTANT  2.00000000E-06
  sy  LAYERED
    open/close ../common/sy01.txt
    open/close ../common/sy02.txt
END griddata

BEGIN period  1
  open/close ../common/transient.txt
END period  1
