# File generated by Flopy version 3.3.3 on 02/05/2021 at 13:07:20.
BEGIN options
  SAVE_FLOWS
  NEWTON UNDER_RELAXATION
  LIST output/gwf_sagehen-gsf.lst
END options

BEGIN packages
  DIS6  ../common/gwf_sagehen-gsf.dis  dis
  IC6  gwf_sagehen-gsf.ic  ic
  NPF6  ../common/gwf_sagehen-gsf.npf  npf
  STO6  gwf_sagehen-gsf.sto  sto
  OC6  gwf_sagehen-gsf.oc  oc
  CHD6  ../common/gwf_sagehen-gsf.chd  chd-1
  SFR6  ../common/gwf_sagehen-gsf.sfr  sfr-1
  UZF6  gwf_sagehen-gsf.uzf  uzf-1
  DRN6  ../common/gwf_sagehen-gsf.drn  drn-1
  MVR6  ../common/gwf_sagehen-gsf.mvr  mvr1
END packages
