# File generated by Flopy version 3.3.3 on 02/05/2021 at 13:07:20.
BEGIN options
  CONTINUE
  MEMORY_PRINT_OPTION ALL
END options

BEGIN timing
  TDIS6  ex-gwf-sagehen-gsf.tdis
END timing

BEGIN models
  gwf6  gwf_sagehen-gsf.nam  sagehenmodel
END models

BEGIN exchanges
END exchanges

BEGIN solutiongroup  1
  ims6  ../common/gwf_sagehen-gsf_transient.ims  sagehenmodel
END solutiongroup  1
