MF6_REF=develop
MF6_REMOTE=MODFLOW-USGS/modflow6