# File generated by Flopy version 3.3.3 on 04/05/2021 at 10:12:30.
BEGIN options
  auxiliary  ddrn
  AUXDEPTHNAME  ddrn
  SAVE_FLOWS
  MOVER
END options

BEGIN dimensions
  MAXBOUND  3195
END dimensions

BEGIN period  1
  open/close ../common/drn_stressperioddata.txt
END period  1
