# File generated by Flopy version 3.3.3 on 02/05/2021 at 13:07:20.
BEGIN options
  ALTERNATIVE_CELL_AVERAGING  amt-hmk
END options

BEGIN griddata
  icelltype  LAYERED
    CONSTANT  1
    CONSTANT  0
  k  LAYERED
    INTERNAL  FACTOR  1.0
           0.00000000       0.00000000       0.00000000       0.00000000       0.00000000       0.00000000       0.00000000       0.00000000       0.00000000       0.00000000       0.00000000       0.00000000       0.00000000       0.00000000       0.00000000       0.00000000       0.00000000       0.00000000       0.00000000       0.00000000
           0.00000000       0.00000000       0.00000000       0.00000000       0.00000000       0.00000000       0.00000000       0.00000000       0.00000000       0.00000000       0.00000000       0.00000000       0.00000000       0.00000000       0.00000000       0.00000000       0.00000000       0.00000000       0.00000000       0.00000000
           0.00000000       0.00000000       0.00000000       0.00000000       0.00000000       0.00000000       0.00000000       0.00000000       0.00000000       0.00000000       0.00000000       0.00000000       0.00000000       0.00000000       0.00000000       0.00000000       0.00000000       0.00000000       0.00000000       0.00000000
           0.00000000       0.00000000       0.00000000       0.02600000       0.02600000       0.00000000       0.00000000       0.00000000       0.00000000       0.00000000       0.00000000       0.00000000       0.00000000       0.00000000       0.00000000       0.00000000       0.00000000       0.00000000       0.00000000       0.00000000
           0.00000000
           0.00000000       0.00000000       0.00000000       0.00000000       0.00000000       0.00000000       0.00000000       0.00000000       0.00000000       0.00000000       0.00000000       0.00000000       0.00000000       0.00000000       0.00000000       0.00000000       0.00000000       0.00000000       0.00000000       0.00000000
           0.00000000       0.00000000       0.00000000       0.00000000       0.00000000       0.00000000       0.00000000       0.00000000       0.00000000       0.00000000       0.00000000       0.00000000       0.00000000       0.00000000       0.00000000       0.00000000       0.00000000       0.00000000       0.00000000       0.00000000
           0.00000000       0.00000000       0.00000000       0.00000000       0.00000000       0.00000000       0.00000000       0.00000000       0.00000000       0.00000000       0.00000000       0.00000000       0.00000000       0.00000000       0.00000000       0.00000000       0.00000000       0.00000000       0.00000000       0.00000000
           0.00000000       0.00000000       0.02600000       0.06500000       0.06500000       0.00000000       0.00000000       0.00000000       0.00000000       0.00000000       0.00000000       0.00000000       0.00000000       0.00000000       0.00000000       0.00000000       0.00000000       0.00000000       0.00000000       0.00000000
           0.00000000
           0.00000000       0.00000000       0.00000000       0.00000000       0.00000000       0.00000000       0.00000000       0.00000000       0.00000000       0.00000000       0.00000000       0.00000000       0.00000000       0.00000000       0.00000000       0.00000000       0.00000000       0.00000000       0.00000000       0.00000000
           0.00000000       0.00000000       0.00000000       0.00000000       0.00000000       0.00000000       0.00000000       0.00000000       0.00000000       0.00000000       0.00000000       0.00000000       0.00000000       0.00000000       0.00000000       0.00000000       0.00000000       0.00000000       0.00000000       0.00000000
           0.00000000       0.00000000       0.00000000       0.00000000       0.00000000       0.00000000       0.00000000       0.00000000       0.00000000       0.00000000       0.00000000       0.00000000       0.00000000       0.00000000       0.00000000       0.00000000       0.00000000       0.00000000       0.00000000       0.00000000
           0.00000000       0.00000000       0.06500000       0.06500000       0.13000000       0.00000000       0.00000000       0.00000000       0.00000000       0.00000000       0.00000000       0.00000000       0.00000000       0.00000000       0.00000000       0.00000000       0.00000000       0.00000000       0.00000000       0.00000000
           0.00000000
           0.00000000       0.00000000       0.00000000       0.00000000       0.00000000       0.00000000       0.00000000       0.00000000       0.00000000       0.00000000       0.00000000       0.00000000       0.00000000       0.00000000       0.00000000       0.00000000       0.00000000       0.00000000       0.00000000       0.00000000
           0.00000000       0.00000000       0.00000000       0.00000000       0.00000000       0.00000000       0.00000000       0.00000000       0.00000000       0.00000000       0.00000000       0.00000000       0.00000000       0.00000000       0.00000000       0.00000000       0.00000000       0.00000000       0.00000000       0.00000000
           0.00000000       0.00000000       0.00000000       0.00000000       0.00000000       0.00000000       0.00000000       0.00000000       0.00000000       0.00000000       0.00000000       0.00000000       0.00000000       0.00000000       0.00000000       0.00000000       0.00000000       0.00000000       0.00000000       0.00000000
           0.00000000       0.02600000       0.06500000       0.06500000       0.13000000       0.00000000       0.00000000       0.00000000       0.00000000       0.00000000       0.00000000       0.00000000       0.00000000       0.00000000       0.00000000       0.00000000       0.00000000       0.00000000       0.00000000       0.00000000
           0.00000000
           0.00000000       0.00000000       0.00000000       0.00000000       0.00000000       0.00000000       0.00000000       0.00000000       0.00000000       0.00000000       0.00000000       0.00000000       0.00000000       0.00000000       0.00000000       0.00000000       0.00000000       0.00000000       0.00000000       0.00000000
           0.00000000       0.00000000       0.00000000       0.00000000       0.00000000       0.00000000       0.00000000       0.00000000       0.00000000       0.00000000       0.00000000       0.00000000       0.00000000       0.00000000       0.00000000       0.00000000       0.00000000       0.00000000       0.00000000       0.00000000
           0.00000000       0.00000000       0.00000000       0.00000000       0.00000000       0.00000000       0.00000000       0.00000000       0.00000000       0.00000000       0.00000000       0.00000000       0.00000000       0.00000000       0.00000000       0.00000000       0.00000000       0.00000000       0.00000000       0.00000000
           0.00000000       0.06500000       0.06500000       0.06500000       0.13000000       0.06500000       0.00000000       0.00000000       0.00000000       0.00000000       0.00000000       0.00000000       0.00000000       0.00000000       0.00000000       0.00000000       0.00000000       0.00000000       0.00000000       0.00000000
           0.00000000
           0.00000000       0.00000000       0.00000000       0.00000000       0.00000000       0.00000000       0.00000000       0.00000000       0.00000000       0.00000000       0.00000000       0.00000000       0.00000000       0.00000000       0.00000000       0.00000000       0.00000000       0.00000000       0.00000000       0.00000000
           0.00000000       0.00000000       0.00000000       0.00000000       0.00000000       0.00000000       0.00000000       0.00000000       0.00000000       0.00000000       0.00000000       0.00000000       0.00000000       0.00000000       0.00000000       0.00000000       0.00000000       0.00000000       0.00000000       0.00000000
           0.00000000       0.00000000       0.00000000       0.00000000       0.00000000       0.00000000       0.00000000       0.00000000       0.00000000       0.00000000       0.00000000       0.00000000       0.00000000       0.00000000       0.00000000       0.00000000       0.00000000       0.00000000       0.00000000       0.00000000
           0.00000000       0.06500000       0.06500000       0.06500000       0.13000000       0.13000000       0.06500000       0.00000000       0.00000000       0.00000000       0.00000000       0.00000000       0.00000000       0.00000000       0.00000000       0.00000000       0.00000000       0.00000000       0.00000000       0.00000000
           0.00000000
           0.00000000       0.00000000       0.00000000       0.00000000       0.00000000       0.00000000       0.00000000       0.00000000       0.00000000       0.00000000       0.00000000       0.00000000       0.00000000       0.00000000       0.00000000       0.00000000       0.00000000       0.00000000       0.00000000       0.00000000
           0.00000000       0.00000000       0.00000000       0.00000000       0.00000000       0.00000000       0.00000000       0.00000000       0.00000000       0.00000000       0.00000000       0.00000000       0.00000000       0.00000000       0.00000000       0.00000000       0.00000000       0.00000000       0.00000000       0.00000000
           0.00000000       0.00000000       0.00000000       0.00000000       0.00000000       0.00000000       0.00000000       0.00000000       0.00000000       0.00000000       0.00000000       0.00000000       0.00000000       0.00000000       0.00000000       0.00000000       0.00000000       0.00000000       0.00000000       0.00000000
           0.02600000       0.06500000       0.06500000       0.06500000       0.13000000       0.13000000       0.13000000       0.06500000       0.00000000       0.00000000       0.00000000       0.00000000       0.00000000       0.00000000       0.00000000       0.00000000       0.00000000       0.00000000       0.00000000       0.00000000
           0.00000000
           0.00000000       0.00000000       0.00000000       0.00000000       0.00000000       0.00000000       0.00000000       0.00000000       0.00000000       0.00000000       0.00000000       0.00000000       0.00000000       0.00000000       0.00000000       0.00000000       0.00000000       0.00000000       0.00000000       0.00000000
           0.00000000       0.00000000       0.00000000       0.00000000       0.00000000       0.00000000       0.00000000       0.00000000       0.00000000       0.00000000       0.00000000       0.00000000       0.00000000       0.00000000       0.00000000       0.00000000       0.00000000       0.00000000       0.00000000       0.00000000
           0.00000000       0.00000000       0.00000000       0.00000000       0.00000000       0.00000000       0.00000000       0.00000000       0.00000000       0.00000000       0.00000000       0.00000000       0.00000000       0.00000000       0.00000000       0.00000000       0.00000000       0.00000000       0.00000000       0.00000000
           0.05200000       0.06500000       0.06500000       0.06500000       0.13000000       0.13000000       0.13000000       0.06500000       0.06500000       0.06500000       0.06500000       0.00000000       0.00000000       0.00000000       0.00000000       0.00000000       0.00000000       0.00000000       0.00000000       0.00000000
           0.00000000
           0.00000000       0.00000000       0.00000000       0.00000000       0.00000000       0.00000000       0.00000000       0.00000000       0.00000000       0.00000000       0.00000000       0.00000000       0.00000000       0.00000000       0.00000000       0.00000000       0.00000000       0.00000000       0.00000000       0.00000000
           0.00000000       0.00000000       0.00000000       0.00000000       0.00000000       0.00000000       0.00000000       0.00000000       0.00000000       0.00000000       0.00000000       0.00000000       0.00000000       0.00000000       0.00000000       0.00000000       0.00000000       0.00000000       0.00000000       0.00000000
           0.00000000       0.00000000       0.00000000       0.00000000       0.00000000       0.00000000       0.00000000       0.00000000       0.05200000       0.05200000       0.00000000       0.00000000       0.00000000       0.00000000       0.00000000       0.00000000       0.00000000       0.00000000       0.06500000       0.06500000
           0.06500000       0.06500000       0.06500000       0.06500000       0.13000000       0.13000000       0.13000000       0.06500000       0.06500000       0.06500000       0.06500000       0.06500000       0.06500000       0.06500000       0.06500000       0.00000000       0.00000000       0.00000000       0.00000000       0.00000000
           0.00000000
           0.00000000       0.00000000       0.00000000       0.00000000       0.00000000       0.00000000       0.00000000       0.00000000       0.00000000       0.00000000       0.00000000       0.00000000       0.00000000       0.00000000       0.00000000       0.00000000       0.00000000       0.00000000       0.00000000       0.00000000
           0.00000000       0.00000000       0.00000000       0.00000000       0.00000000       0.00000000       0.00000000       0.00000000       0.00000000       0.00000000       0.00000000       0.00000000       0.00000000       0.00000000       0.00000000       0.00000000       0.00000000       0.00000000       0.00000000       0.00000000
           0.00000000       0.00000000       0.00000000       0.00000000       0.00000000       0.00000000       0.00000000       0.05200000       0.05200000       0.05200000       0.05200000       0.05200000       0.05200000       0.00000000       0.00000000       0.00000000       0.05200000       0.06500000       0.06500000       0.06500000
           0.06500000       0.06500000       0.06500000       0.06500000       0.13000000       0.13000000       0.13000000       0.06500000       0.06500000       0.06500000       0.06500000       0.06500000       0.06500000       0.06500000       0.06500000       0.06500000       0.00000000       0.00000000       0.00000000       0.00000000
           0.00000000
           0.00000000       0.00000000       0.00000000       0.00000000       0.00000000       0.00000000       0.00000000       0.00000000       0.00000000       0.00000000       0.00000000       0.00000000       0.00000000       0.00000000       0.00000000       0.00000000       0.00000000       0.00000000       0.00000000       0.00000000
           0.00000000       0.00000000       0.00000000       0.00000000       0.00000000       0.00000000       0.00000000       0.00000000       0.00000000       0.00000000       0.00000000       0.00000000       0.00000000       0.00000000       0.00000000       0.00000000       0.00000000       0.00000000       0.00000000       0.00000000
           0.00000000       0.00000000       0.00000000       0.00000000       0.00000000       0.00000000       0.05200000       0.05200000       0.05200000       0.05200000       0.05200000       0.05200000       0.05200000       0.05200000       0.05200000       0.05200000       0.05200000       0.06500000       0.06500000       0.06500000
           0.06500000       0.06500000       0.06500000       0.06500000       0.13000000       0.13000000       0.13000000       0.06500000       0.06500000       0.06500000       0.06500000       0.06500000       0.06500000       0.06500000       0.06500000       0.06500000       0.00000000       0.00000000       0.00000000       0.00000000
           0.00000000
           0.00000000       0.00000000       0.00000000       0.00000000       0.00000000       0.00000000       0.00000000       0.00000000       0.00000000       0.00000000       0.00000000       0.00000000       0.00000000       0.00000000       0.00000000       0.00000000       0.00000000       0.00000000       0.00000000       0.00000000
           0.00000000       0.00000000       0.00000000       0.00000000       0.00000000       0.00000000       0.00000000       0.00000000       0.00000000       0.00000000       0.00000000       0.00000000       0.00000000       0.00000000       0.00000000       0.00000000       0.00000000       0.00000000       0.00000000       0.00000000
           0.00000000       0.00000000       0.00000000       0.00000000       0.00000000       0.00000000       0.05200000       0.05200000       0.05200000       0.06500000       0.06500000       0.06500000       0.06500000       0.06500000       0.06500000       0.06500000       0.06500000       0.06500000       0.06500000       0.06500000
           0.06500000       0.06500000       0.06500000       0.06500000       0.13000000       0.13000000       0.13000000       0.06500000       0.06500000       0.06500000       0.06500000       0.06500000       0.06500000       0.06500000       0.06500000       0.06500000       0.06500000       0.00000000       0.00000000       0.00000000
           0.00000000
           0.00000000       0.00000000       0.00000000       0.00000000       0.00000000       0.00000000       0.00000000       0.00000000       0.00000000       0.00000000       0.00000000       0.00000000       0.00000000       0.00000000       0.00000000       0.00000000       0.00000000       0.00000000       0.00000000       0.00000000
           0.00000000       0.00000000       0.00000000       0.00000000       0.00000000       0.00000000       0.00000000       0.00000000       0.00000000       0.00000000       0.00000000       0.00000000       0.00000000       0.00000000       0.00000000       0.00000000       0.00000000       0.00000000       0.00000000       0.00000000
           0.00000000       0.00000000       0.00000000       0.00000000       0.05200000       0.05200000       0.05200000       0.05200000       0.05200000       0.06500000       0.06500000       0.06500000       0.06500000       0.06500000       0.06500000       0.06500000       0.06500000       0.06500000       0.06500000       0.06500000
           0.06500000       0.06500000       0.06500000       0.06500000       0.13000000       0.13000000       0.13000000       0.06500000       0.06500000       0.06500000       0.06500000       0.06500000       0.06500000       0.06500000       0.06500000       0.06500000       0.06500000       0.06500000       0.00000000       0.00000000
           0.00000000
           0.00000000       0.00000000       0.00000000       0.00000000       0.00000000       0.00000000       0.00000000       0.00000000       0.00000000       0.00000000       0.00000000       0.00000000       0.00000000       0.00000000       0.00000000       0.00000000       0.00000000       0.00000000       0.00000000       0.00000000
           0.00000000       0.00000000       0.00000000       0.00000000       0.00000000       0.00000000       0.00000000       0.00000000       0.00000000       0.00000000       0.00000000       0.00000000       0.00000000       0.00000000       0.00000000       0.00000000       0.00000000       0.00000000       0.00000000       0.00000000
           0.00000000       0.05200000       0.05200000       0.05200000       0.05200000       0.05200000       0.05200000       0.05200000       0.05200000       0.06500000       0.06500000       0.06500000       0.06500000       0.06500000       0.06500000       0.06500000       0.06500000       0.06500000       0.06500000       0.06500000
           0.06500000       0.06500000       0.06500000       0.06500000       0.13000000       0.13000000       0.13000000       0.06500000       0.06500000       0.06500000       0.06500000       0.06500000       0.06500000       0.06500000       0.06500000       0.06500000       0.06500000       0.06500000       0.06500000       0.00000000
           0.00000000
           0.00000000       0.00000000       0.00000000       0.00000000       0.00000000       0.00000000       0.00000000       0.00000000       0.00000000       0.00000000       0.00000000       0.00000000       0.00000000       0.00000000       0.00000000       0.00000000       0.00000000       0.00000000       0.00000000       0.00000000
           0.00000000       0.00000000       0.00000000       0.00000000       0.00000000       0.00000000       0.00000000       0.00000000       0.00000000       0.00000000       0.00000000       0.00000000       0.00000000       0.00000000       0.00000000       0.00000000       0.00000000       0.00000000       0.00000000       0.00000000
           0.02600000       0.02600000       0.05200000       0.05200000       0.05200000       0.05200000       0.05200000       0.05200000       0.05200000       0.05200000       0.05200000       0.06500000       0.06500000       0.06500000       0.06500000       0.06500000       0.06500000       0.06500000       0.06500000       0.06500000
           0.06500000       0.06500000       0.06500000       0.06500000       0.13000000       0.13000000       0.13000000       0.13000000       0.06500000       0.06500000       0.06500000       0.06500000       0.06500000       0.06500000       0.06500000       0.06500000       0.06500000       0.06500000       0.06500000       0.06500000
           0.00000000
           0.00000000       0.00000000       0.00000000       0.00000000       0.00000000       0.00000000       0.00000000       0.00000000       0.00000000       0.00000000       0.00000000       0.00000000       0.00000000       0.00000000       0.00000000       0.00000000       0.00000000       0.00000000       0.00000000       0.00000000
           0.00000000       0.00000000       0.00000000       0.00000000       0.00000000       0.00000000       0.00000000       0.00000000       0.00000000       0.00000000       0.00000000       0.00000000       0.00000000       0.00000000       0.00000000       0.00000000       0.00000000       0.00000000       0.00000000       0.02600000
           0.02600000       0.02600000       0.05200000       0.05200000       0.05200000       0.05200000       0.05200000       0.05200000       0.05200000       0.05200000       0.05200000       0.05200000       0.06500000       0.06500000       0.06500000       0.06500000       0.06500000       0.06500000       0.06500000       0.06500000
           0.06500000       0.06500000       0.06500000       0.06500000       0.13000000       0.13000000       0.13000000       0.13000000       0.13000000       0.06500000       0.06500000       0.06500000       0.06500000       0.06500000       0.06500000       0.06500000       0.06500000       0.06500000       0.06500000       0.06500000
           0.00000000
           0.00000000       0.00000000       0.00000000       0.00000000       0.00000000       0.00000000       0.00000000       0.00000000       0.00000000       0.00000000       0.00000000       0.00000000       0.00000000       0.00000000       0.00000000       0.00000000       0.00000000       0.00000000       0.00000000       0.00000000
           0.00000000       0.00000000       0.00000000       0.00000000       0.00000000       0.00000000       0.00000000       0.00000000       0.00000000       0.00000000       0.00000000       0.00000000       0.00000000       0.00000000       0.00000000       0.00000000       0.00000000       0.00000000       0.00000000       0.02600000
           0.02600000       0.02600000       0.02600000       0.05200000       0.05200000       0.05200000       0.05200000       0.05200000       0.05200000       0.05200000       0.05200000       0.05200000       0.06500000       0.06500000       0.06500000       0.06500000       0.06500000       0.06500000       0.06500000       0.06500000
           0.06500000       0.06500000       0.06500000       0.06500000       0.13000000       0.13000000       0.13000000       0.13000000       0.13000000       0.13000000       0.13000000       0.13000000       0.13000000       0.13000000       0.13000000       0.13000000       0.06500000       0.06500000       0.06500000       0.06500000
           0.00000000
           0.00000000       0.00000000       0.00000000       0.00000000       0.00000000       0.00000000       0.00000000       0.00000000       0.00000000       0.00000000       0.00000000       0.00000000       0.00000000       0.00000000       0.00000000       0.00000000       0.00000000       0.00000000       0.00000000       0.00000000
           0.00000000       0.00000000       0.00000000       0.00000000       0.00000000       0.00000000       0.00000000       0.00000000       0.00000000       0.00000000       0.00000000       0.00000000       0.00000000       0.00000000       0.00000000       0.00000000       0.00000000       0.00000000       0.00000000       0.02600000
           0.02600000       0.02600000       0.02600000       0.05200000       0.05200000       0.05200000       0.05200000       0.05200000       0.05200000       0.05200000       0.05200000       0.05200000       0.06500000       0.06500000       0.06500000       0.06500000       0.06500000       0.06500000       0.06500000       0.06500000
           0.06500000       0.06500000       0.06500000       0.06500000       0.13000000       0.13000000       0.13000000       0.13000000       0.13000000       0.13000000       0.13000000       0.13000000       0.13000000       0.13000000       0.13000000       0.13000000       0.13000000       0.06500000       0.06500000       0.06500000
           0.00000000
           0.00000000       0.00000000       0.00000000       0.00000000       0.00000000       0.00000000       0.00000000       0.00000000       0.00000000       0.00000000       0.00000000       0.00000000       0.00000000       0.00000000       0.00000000       0.00000000       0.00000000       0.00000000       0.00000000       0.00000000
           0.00000000       0.00000000       0.00000000       0.00000000       0.00000000       0.00000000       0.00000000       0.00000000       0.00000000       0.00000000       0.00000000       0.00000000       0.00000000       0.00000000       0.02600000       0.02600000       0.02600000       0.02600000       0.02600000       0.02600000
           0.02600000       0.02600000       0.05200000       0.05200000       0.05200000       0.05200000       0.05200000       0.05200000       0.05200000       0.05200000       0.05200000       0.05200000       0.06500000       0.06500000       0.06500000       0.06500000       0.06500000       0.06500000       0.06500000       0.06500000
           0.06500000       0.06500000       0.06500000       0.06500000       0.13000000       0.13000000       0.13000000       0.13000000       0.13000000       0.13000000       0.13000000       0.13000000       0.13000000       0.13000000       0.13000000       0.13000000       0.13000000       0.06500000       0.06500000       0.06500000
           0.03900000
           0.00000000       0.00000000       0.00000000       0.00000000       0.00000000       0.00000000       0.00000000       0.00000000       0.00000000       0.00000000       0.00000000       0.00000000       0.00000000       0.00000000       0.00000000       0.00000000       0.00000000       0.00000000       0.00000000       0.00000000
           0.00000000       0.00000000       0.00000000       0.00000000       0.00000000       0.00000000       0.00000000       0.00000000       0.00000000       0.00000000       0.00000000       0.00000000       0.02600000       0.02600000       0.02600000       0.02600000       0.02600000       0.02600000       0.02600000       0.02600000
           0.02600000       0.05200000       0.05200000       0.05200000       0.05200000       0.05200000       0.05200000       0.05200000       0.05200000       0.05200000       0.05200000       0.05200000       0.06500000       0.06500000       0.06500000       0.06500000       0.06500000       0.06500000       0.06500000       0.06500000
           0.06500000       0.06500000       0.06500000       0.06500000       0.13000000       0.13000000       0.13000000       0.13000000       0.13000000       0.13000000       0.13000000       0.13000000       0.13000000       0.13000000       0.13000000       0.13000000       0.13000000       0.06500000       0.06500000       0.06500000
           0.03900000
           0.00000000       0.00000000       0.00000000       0.00000000       0.00000000       0.00000000       0.00000000       0.00000000       0.00000000       0.00000000       0.00000000       0.00000000       0.00000000       0.00000000       0.00000000       0.00000000       0.00000000       0.00000000       0.00000000       0.00000000
           0.00000000       0.00000000       0.00000000       0.00000000       0.00000000       0.00000000       0.00000000       0.00000000       0.00000000       0.02600000       0.02600000       0.02600000       0.02600000       0.02600000       0.02600000       0.02600000       0.02600000       0.02600000       0.02600000       0.05200000
           0.05200000       0.05200000       0.05200000       0.05200000       0.05200000       0.05200000       0.05200000       0.05200000       0.05200000       0.05200000       0.05200000       0.05200000       0.06500000       0.06500000       0.13000000       0.06500000       0.06500000       0.06500000       0.06500000       0.06500000
           0.06500000       0.06500000       0.06500000       0.06500000       0.06500000       0.13000000       0.13000000       0.13000000       0.13000000       0.13000000       0.13000000       0.13000000       0.13000000       0.13000000       0.13000000       0.13000000       0.13000000       0.06500000       0.06500000       0.06500000
           0.03900000