# File generated by Flopy version 3.3.3 on 02/05/2021 at 13:07:20.
BEGIN options
END options

BEGIN dimensions
  MAXBOUND  6
END dimensions

BEGIN period  1
  1 43 80    1925.00000000
  1 44 80    1915.00000000
  1 45 80    1915.00000000
  2 43 80    1900.00000000
  2 44 80    1900.00000000
  2 45 80    1900.00000000
END period  1

