# File generated by Flopy version 3.3.3 on 02/05/2021 at 13:07:20.
BEGIN options
END options

BEGIN dimensions
  NLAY  2
  NROW  73
  NCOL  81
END dimensions

BEGIN griddata
  delr
    CONSTANT      90.00000000
  delc
    CONSTANT      90.00000000
  top
    INTERNAL  FACTOR  1.0
         0.00000000       0.00000000       0.00000000       0.00000000       0.00000000       0.00000000       0.00000000       0.00000000       0.00000000       0.00000000       0.00000000       0.00000000       0.00000000       0.00000000       0.00000000       0.00000000       0.00000000       0.00000000       0.00000000       0.00000000
         0.00000000       0.00000000       0.00000000       0.00000000       0.00000000       0.00000000       0.00000000       0.00000000       0.00000000       0.00000000       0.00000000       0.00000000       0.00000000       0.00000000       0.00000000       0.00000000       0.00000000       0.00000000       0.00000000       0.00000000
         0.00000000       0.00000000       0.00000000       0.00000000       0.00000000       0.00000000       0.00000000       0.00000000       0.00000000       0.00000000       0.00000000       0.00000000       0.00000000       0.00000000       0.00000000       0.00000000       0.00000000       0.00000000       0.00000000       0.00000000
         0.00000000       0.00000000       0.00000000    2166.00000000    2148.00000000       0.00000000       0.00000000       0.00000000       0.00000000       0.00000000       0.00000000       0.00000000       0.00000000       0.00000000       0.00000000       0.00000000       0.00000000       0.00000000       0.00000000       0.00000000
         0.00000000
         0.00000000       0.00000000       0.00000000       0.00000000       0.00000000       0.00000000       0.00000000       0.00000000       0.00000000       0.00000000       0.00000000       0.00000000       0.00000000       0.00000000       0.00000000       0.00000000       0.00000000       0.00000000       0.00000000       0.00000000
         0.00000000       0.00000000       0.00000000       0.00000000       0.00000000       0.00000000       0.00000000       0.00000000       0.00000000       0.00000000       0.00000000       0.00000000       0.00000000       0.00000000       0.00000000       0.00000000       0.00000000       0.00000000       0.00000000       0.00000000
         0.00000000       0.00000000       0.00000000       0.00000000       0.00000000       0.00000000       0.00000000       0.00000000       0.00000000       0.00000000       0.00000000       0.00000000       0.00000000       0.00000000       0.00000000       0.00000000       0.00000000       0.00000000       0.00000000       0.00000000
         0.00000000       0.00000000    2170.00000000    2158.00000000    2136.00000000       0.00000000       0.00000000       0.00000000       0.00000000       0.00000000       0.00000000       0.00000000       0.00000000       0.00000000       0.00000000       0.00000000       0.00000000       0.00000000       0.00000000       0.00000000
         0.00000000
         0.00000000       0.00000000       0.00000000       0.00000000       0.00000000       0.00000000       0.00000000       0.00000000       0.00000000       0.00000000       0.00000000       0.00000000       0.00000000       0.00000000       0.00000000       0.00000000       0.00000000       0.00000000       0.00000000       0.00000000
         0.00000000       0.00000000       0.00000000       0.00000000       0.00000000       0.00000000       0.00000000       0.00000000       0.00000000       0.00000000       0.00000000       0.00000000       0.00000000       0.00000000       0.00000000       0.00000000       0.00000000       0.00000000       0.00000000       0.00000000
         0.00000000       0.00000000       0.00000000       0.00000000       0.00000000       0.00000000       0.00000000       0.00000000       0.00000000       0.00000000       0.00000000       0.00000000       0.00000000       0.00000000       0.00000000       0.00000000       0.00000000       0.00000000       0.00000000       0.00000000
         0.00000000       0.00000000    2161.00000000    2144.00000000    2124.00000000       0.00000000       0.00000000       0.00000000       0.00000000       0.00000000       0.00000000       0.00000000       0.00000000       0.00000000       0.00000000       0.00000000       0.00000000       0.00000000       0.00000000       0.00000000
         0.00000000
         0.00000000       0.00000000       0.00000000       0.00000000       0.00000000       0.00000000       0.00000000       0.00000000       0.00000000       0.00000000       0.00000000       0.00000000       0.00000000       0.00000000       0.00000000       0.00000000       0.00000000       0.00000000       0.00000000       0.00000000
         0.00000000       0.00000000       0.00000000       0.00000000       0.00000000       0.00000000       0.00000000       0.00000000       0.00000000       0.00000000       0.00000000       0.00000000       0.00000000       0.00000000       0.00000000       0.00000000       0.00000000       0.00000000       0.00000000       0.00000000
         0.00000000       0.00000000       0.00000000       0.00000000       0.00000000       0.00000000       0.00000000       0.00000000       0.00000000       0.00000000       0.00000000       0.00000000       0.00000000       0.00000000       0.00000000       0.00000000       0.00000000       0.00000000       0.00000000       0.00000000
         0.00000000    2158.00000000    2152.00000000    2128.00000000    2121.00000000       0.00000000       0.00000000       0.00000000       0.00000000       0.00000000       0.00000000       0.00000000       0.00000000       0.00000000       0.00000000       0.00000000       0.00000000       0.00000000       0.00000000       0.00000000
         0.00000000
         0.00000000       0.00000000       0.00000000       0.00000000       0.00000000       0.00000000       0.00000000       0.00000000       0.00000000       0.00000000       0.00000000       0.00000000       0.00000000       0.00000000       0.00000000       0.00000000       0.00000000       0.00000000       0.00000000       0.00000000
         0.00000000       0.00000000       0.00000000       0.00000000       0.00000000       0.00000000       0.00000000       0.00000000       0.00000000       0.00000000       0.00000000       0.00000000       0.00000000       0.00000000       0.00000000       0.00000000       0.00000000       0.00000000       0.00000000       0.00000000
         0.00000000       0.00000000       0.00000000       0.00000000       0.00000000       0.00000000       0.00000000       0.00000000       0.00000000       0.00000000       0.00000000       0.00000000       0.00000000       0.00000000       0.00000000       0.00000000       0.00000000       0.00000000       0.00000000       0.00000000
         0.00000000    2153.00000000    2141.00000000    2122.00000000    2119.00000000    2119.00000000       0.00000000       0.00000000       0.00000000       0.00000000       0.00000000       0.00000000       0.00000000       0.00000000       0.00000000       0.00000000       0.00000000       0.00000000       0.00000000       0.00000000
         0.00000000
         0.00000000       0.00000000       0.00000000       0.00000000       0.00000000       0.00000000       0.00000000       0.00000000       0.00000000       0.00000000       0.00000000       0.00000000       0.00000000       0.00000000       0.00000000       0.00000000       0.00000000       0.00000000       0.00000000       0.00000000
         0.00000000       0.00000000       0.00000000       0.00000000       0.00000000       0.00000000       0.00000000       0.00000000       0.00000000       0.00000000       0.00000000       0.00000000       0.00000000       0.00000000       0.00000000       0.00000000       0.00000000       0.00000000       0.00000000       0.00000000
         0.00000000       0.00000000       0.00000000       0.00000000       0.00000000       0.00000000       0.00000000       0.00000000       0.00000000       0.00000000       0.00000000       0.00000000       0.00000000       0.00000000       0.00000000       0.00000000       0.00000000       0.00000000       0.00000000       0.00000000
         0.00000000    2149.00000000    2134.00000000    2121.00000000    2119.00000000    2118.00000000    2116.00000000       0.00000000       0.00000000       0.00000000       0.00000000       0.00000000       0.00000000       0.00000000       0.00000000       0.00000000       0.00000000       0.00000000       0.00000000       0.00000000
         0.00000000
         0.00000000       0.00000000       0.00000000       0.00000000       0.00000000       0.00000000       0.00000000       0.00000000       0.00000000       0.00000000       0.00000000       0.00000000       0.00000000       0.00000000       0.00000000       0.00000000       0.00000000       0.00000000       0.00000000       0.00000000
         0.00000000       0.00000000       0.00000000       0.00000000       0.00000000       0.00000000       0.00000000       0.00000000       0.00000000       0.00000000       0.00000000       0.00000000       0.00000000       0.00000000       0.00000000       0.00000000       0.00000000       0.00000000       0.00000000       0.00000000
         0.00000000       0.00000000       0.00000000       0.00000000       0.00000000       0.00000000       0.00000000       0.00000000       0.00000000       0.00000000       0.00000000       0.00000000       0.00000000       0.00000000       0.00000000       0.00000000       0.00000000       0.00000000       0.00000000       0.00000000
      2156.00000000    2151.00000000    2136.00000000    2125.00000000    2119.00000000    2115.00000000    2114.00000000    2116.00000000       0.00000000       0.00000000       0.00000000       0.00000000       0.00000000       0.00000000       0.00000000       0.00000000       0.00000000       0.00000000       0.00000000       0.00000000
         0.00000000
         0.00000000       0.00000000       0.00000000       0.00000000       0.00000000       0.00000000       0.00000000       0.00000000       0.00000000       0.00000000       0.00000000       0.00000000       0.00000000       0.00000000       0.00000000       0.00000000       0.00000000       0.00000000       0.00000000       0.00000000
         0.00000000       0.00000000       0.00000000       0.00000000       0.00000000       0.00000000       0.00000000       0.00000000       0.00000000       0.00000000       0.00000000       0.00000000       0.00000000       0.00000000       0.00000000       0.00000000       0.00000000       0.00000000       0.00000000       0.00000000
         0.00000000       0.00000000       0.00000000       0.00000000       0.00000000       0.00000000       0.00000000       0.00000000       0.00000000       0.00000000       0.00000000       0.00000000       0.00000000       0.00000000       0.00000000       0.00000000       0.00000000       0.00000000       0.00000000       0.00000000
      2160.00000000    2153.00000000    2142.00000000    2130.00000000    2117.00000000    2111.00000000    2112.00000000    2116.00000000    2120.00000000    2123.00000000    2125.00000000       0.00000000       0.00000000       0.00000000       0.00000000       0.00000000       0.00000000       0.00000000       0.00000000       0.00000000
         0.00000000
         0.00000000       0.00000000       0.00000000       0.00000000       0.00000000       0.00000000       0.00000000       0.00000000       0.00000000       0.00000000       0.00000000       0.00000000       0.00000000       0.00000000       0.00000000       0.00000000       0.00000000       0.00000000       0.00000000       0.00000000
         0.00000000       0.00000000       0.00000000       0.00000000       0.00000000       0.00000000       0.00000000       0.00000000       0.00000000       0.00000000       0.00000000       0.00000000       0.00000000       0.00000000       0.00000000       0.00000000       0.00000000       0.00000000       0.00000000       0.00000000
         0.00000000       0.00000000       0.00000000       0.00000000       0.00000000       0.00000000       0.00000000       0.00000000    2185.00000000    2184.00000000       0.00000000       0.00000000       0.00000000       0.00000000       0.00000000       0.00000000       0.00000000       0.00000000    2152.00000000    2156.00000000
      2155.00000000    2146.00000000    2138.00000000    2128.00000000    2114.00000000    2109.00000000    2110.00000000    2114.00000000    2120.00000000    2124.00000000    2126.00000000    2122.00000000    2120.00000000    2121.00000000    2123.00000000       0.00000000       0.00000000       0.00000000       0.00000000       0.00000000
         0.00000000
         0.00000000       0.00000000       0.00000000       0.00000000       0.00000000       0.00000000       0.00000000       0.00000000       0.00000000       0.00000000       0.00000000       0.00000000       0.00000000       0.00000000       0.00000000       0.00000000       0.00000000       0.00000000       0.00000000       0.00000000
         0.00000000       0.00000000       0.00000000       0.00000000       0.00000000       0.00000000       0.00000000       0.00000000       0.00000000       0.00000000       0.00000000       0.00000000       0.00000000       0.00000000       0.00000000       0.00000000       0.00000000       0.00000000       0.00000000       0.00000000
         0.00000000       0.00000000       0.00000000       0.00000000       0.00000000       0.00000000       0.00000000    2188.00000000    2185.00000000    2184.00000000    2186.00000000    2181.00000000    2172.00000000       0.00000000       0.00000000       0.00000000    2153.00000000    2151.00000000    2149.00000000    2149.00000000
      2147.00000000    2142.00000000    2133.00000000    2121.00000000    2112.00000000    2107.00000000    2108.00000000    2110.00000000    2120.00000000    2125.00000000    2126.00000000    2123.00000000    2118.00000000    2119.00000000    2121.00000000    2123.00000000       0.00000000       0.00000000       0.00000000       0.00000000
         0.00000000
         0.00000000       0.00000000       0.00000000       0.00000000       0.00000000       0.00000000       0.00000000       0.00000000       0.00000000       0.00000000       0.00000000       0.00000000       0.00000000       0.00000000       0.00000000       0.00000000       0.00000000       0.00000000       0.00000000       0.00000000
         0.00000000       0.00000000       0.00000000       0.00000000       0.00000000       0.00000000       0.00000000       0.00000000       0.00000000       0.00000000       0.00000000       0.00000000       0.00000000       0.00000000       0.00000000       0.00000000       0.00000000       0.00000000       0.00000000       0.00000000
         0.00000000       0.00000000       0.00000000       0.00000000       0.00000000       0.00000000    2194.00000000    2186.00000000    2178.00000000    2179.00000000    2176.00000000    2169.00000000    2166.00000000    2165.00000000    2163.00000000    2160.00000000    2156.00000000    2151.00000000    2147.00000000    2144.00000000
      2142.00000000    2138.00000000    2130.00000000    2118.00000000    2110.00000000    2106.00000000    2106.00000000    2108.00000000    2116.00000000    2123.00000000    2125.00000000    2123.00000000    2117.00000000    2112.00000000    2114.00000000    2118.00000000       0.00000000       0.00000000       0.00000000       0.00000000
         0.00000000
         0.00000000       0.00000000       0.00000000       0.00000000       0.00000000       0.00000000       0.00000000       0.00000000       0.00000000       0.00000000       0.00000000       0.00000000       0.00000000       0.00000000       0.00000000       0.00000000       0.00000000       0.00000000       0.00000000       0.00000000
         0.00000000       0.00000000       0.00000000       0.00000000       0.00000000       0.00000000       0.00000000       0.00000000       0.00000000       0.00000000       0.00000000       0.00000000       0.00000000       0.00000000       0.00000000       0.00000000       0.00000000       0.00000000       0.00000000       0.00000000
         0.00000000       0.00000000       0.00000000       0.00000000       0.00000000       0.00000000    2193.00000000    2182.00000000    2174.00000000    2167.00000000    2158.00000000    2156.00000000    2157.00000000    2161.00000000    2162.00000000    2160.00000000    2154.00000000    2148.00000000    2144.00000000    2139.00000000
      2136.00000000    2136.00000000    2131.00000000    2118.00000000    2110.00000000    2106.00000000    2105.00000000    2106.00000000    2112.00000000    2117.00000000    2120.00000000    2119.00000000    2115.00000000    2110.00000000    2108.00000000    2112.00000000    2117.00000000       0.00000000       0.00000000       0.00000000
         0.00000000
         0.00000000       0.00000000       0.00000000       0.00000000       0.00000000       0.00000000       0.00000000       0.00000000       0.00000000       0.00000000       0.00000000       0.00000000       0.00000000       0.00000000       0.00000000       0.00000000       0.00000000       0.00000000       0.00000000       0.00000000
         0.00000000       0.00000000       0.00000000       0.00000000       0.00000000       0.00000000       0.00000000       0.00000000       0.00000000       0.00000000       0.00000000       0.00000000       0.00000000       0.00000000       0.00000000       0.00000000       0.00000000       0.00000000       0.00000000       0.00000000
         0.00000000       0.00000000       0.00000000       0.00000000    2207.00000000    2197.00000000    2187.00000000    2179.00000000    2171.00000000    2159.00000000    2150.00000000    2144.00000000    2145.00000000    2152.00000000    2157.00000000    2157.00000000    2151.00000000    2145.00000000    2140.00000000    2135.00000000
      2132.00000000    2131.00000000    2127.00000000    2119.00000000    2110.00000000    2107.00000000    2103.00000000    2102.00000000    2107.00000000    2110.00000000    2112.00000000    2114.00000000    2112.00000000    2107.00000000    2102.00000000    2109.00000000    2117.00000000    2123.00000000       0.00000000       0.00000000
         0.00000000
         0.00000000       0.00000000       0.00000000       0.00000000       0.00000000       0.00000000       0.00000000       0.00000000       0.00000000       0.00000000       0.00000000       0.00000000       0.00000000       0.00000000       0.00000000       0.00000000       0.00000000       0.00000000       0.00000000       0.00000000
         0.00000000       0.00000000       0.00000000       0.00000000       0.00000000       0.00000000       0.00000000       0.00000000       0.00000000       0.00000000       0.00000000       0.00000000       0.00000000       0.00000000       0.00000000       0.00000000       0.00000000       0.00000000       0.00000000       0.00000000
         0.00000000    2219.00000000    2213.00000000    2209.00000000    2200.00000000    2185.00000000    2179.00000000    2172.00000000    2161.00000000    2156.00000000    2151.00000000    2147.00000000    2135.00000000    2140.00000000    2147.00000000    2149.00000000    2147.00000000    2142.00000000    2137.00000000    2132.00000000
      2129.00000000    2126.00000000    2122.00000000    2117.00000000    2111.00000000    2105.00000000    2100.00000000    2098.00000000    2101.00000000    2104.00000000    2107.00000000    2108.00000000    2106.00000000    2100.00000000    2099.00000000    2108.00000000    2117.00000000    2124.00000000    2128.00000000       0.00000000
         0.00000000
         0.00000000       0.00000000       0.00000000       0.00000000       0.00000000       0.00000000       0.00000000       0.00000000       0.00000000       0.00000000       0.00000000       0.00000000       0.00000000       0.00000000       0.00000000       0.00000000       0.00000000       0.00000000       0.00000000       0.00000000
         0.00000000       0.00000000       0.00000000       0.00000000       0.00000000       0.00000000       0.00000000       0.00000000       0.00000000       0.00000000       0.00000000       0.00000000       0.00000000       0.00000000       0.00000000       0.00000000       0.00000000       0.00000000       0.00000000       0.00000000
      2225.00000000    2218.00000000    2209.00000000    2206.00000000    2191.00000000    2180.00000000    2174.00000000    2167.00000000    2158.00000000    2155.00000000    2151.00000000    2148.00000000    2133.00000000    2128.00000000    2132.00000000    2136.00000000    2139.00000000    2138.00000000    2134.00000000    2128.00000000
      2125.00000000    2121.00000000    2118.00000000    2115.00000000    2111.00000000    2105.00000000    2099.00000000    2094.00000000    2095.00000000    2097.00000000    2101.00000000    2102.00000000    2099.00000000    2095.00000000    2095.00000000    2103.00000000    2113.00000000    2121.00000000    2127.00000000    2131.00000000
         0.00000000
         0.00000000       0.00000000       0.00000000       0.00000000       0.00000000       0.00000000       0.00000000       0.00000000       0.00000000       0.00000000       0.00000000       0.00000000       0.00000000       0.00000000       0.00000000       0.00000000       0.00000000       0.00000000       0.00000000       0.00000000
         0.00000000       0.00000000       0.00000000       0.00000000       0.00000000       0.00000000       0.00000000       0.00000000       0.00000000       0.00000000       0.00000000       0.00000000       0.00000000       0.00000000       0.00000000       0.00000000       0.00000000       0.00000000       0.00000000    2230.00000000
      2222.00000000    2224.00000000    2226.00000000    2215.00000000    2198.00000000    2188.00000000    2179.00000000    2168.00000000    2158.00000000    2154.00000000    2149.00000000    2142.00000000    2131.00000000    2122.00000000    2117.00000000    2121.00000000    2131.00000000    2131.00000000    2127.00000000    2123.00000000
      2120.00000000    2116.00000000    2113.00000000    2111.00000000    2109.00000000    2105.00000000    2099.00000000    2091.00000000    2091.00000000    2094.00000000    2097.00000000    2097.00000000    2092.00000000    2088.00000000    2089.00000000    2097.00000000    2109.00000000    2121.00000000    2126.00000000    2128.00000000
         0.00000000
         0.00000000       0.00000000       0.00000000       0.00000000       0.00000000       0.00000000       0.00000000       0.00000000       0.00000000       0.00000000       0.00000000       0.00000000       0.00000000       0.00000000       0.00000000       0.00000000       0.00000000       0.00000000       0.00000000       0.00000000
         0.00000000       0.00000000       0.00000000       0.00000000       0.00000000       0.00000000       0.00000000       0.00000000       0.00000000       0.00000000       0.00000000       0.00000000       0.00000000       0.00000000       0.00000000       0.00000000       0.00000000       0.00000000       0.00000000    2235.00000000
      2240.00000000    2241.00000000    2235.00000000    2220.00000000    2202.00000000    2191.00000000    2181.00000000    2175.00000000    2164.00000000    2155.00000000    2149.00000000    2142.00000000    2135.00000000    2126.00000000    2107.00000000    2107.00000000    2121.00000000    2122.00000000    2119.00000000    2116.00000000
      2112.00000000    2110.00000000    2109.00000000    2107.00000000    2106.00000000    2104.00000000    2100.00000000    2090.00000000    2087.00000000    2090.00000000    2092.00000000    2091.00000000    2085.00000000    2082.00000000    2081.00000000    2090.00000000    2106.00000000    2120.00000000    2123.00000000    2123.00000000
         0.00000000
         0.00000000       0.00000000       0.00000000       0.00000000       0.00000000       0.00000000       0.00000000       0.00000000       0.00000000       0.00000000       0.00000000       0.00000000       0.00000000       0.00000000       0.00000000       0.00000000       0.00000000       0.00000000       0.00000000       0.00000000
         0.00000000       0.00000000       0.00000000       0.00000000       0.00000000       0.00000000       0.00000000       0.00000000       0.00000000       0.00000000       0.00000000       0.00000000       0.00000000       0.00000000       0.00000000       0.00000000       0.00000000       0.00000000       0.00000000    2248.00000000
      2242.00000000    2233.00000000    2221.00000000    2207.00000000    2193.00000000    2181.00000000    2171.00000000    2165.00000000    2157.00000000    2150.00000000    2146.00000000    2140.00000000    2136.00000000    2123.00000000    2100.00000000    2094.00000000    2109.00000000    2113.00000000    2111.00000000    2108.00000000
      2106.00000000    2105.00000000    2105.00000000    2105.00000000    2103.00000000    2102.00000000    2099.00000000    2090.00000000    2083.00000000    2088.00000000    2089.00000000    2088.00000000    2085.00000000    2076.00000000    2075.00000000    2082.00000000    2096.00000000    2110.00000000    2115.00000000    2119.00000000
         0.00000000
         0.00000000       0.00000000       0.00000000       0.00000000       0.00000000       0.00000000       0.00000000       0.00000000       0.00000000       0.00000000       0.00000000       0.00000000       0.00000000       0.00000000       0.00000000       0.00000000       0.00000000       0.00000000       0.00000000       0.00000000
         0.00000000       0.00000000       0.00000000       0.00000000       0.00000000       0.00000000       0.00000000       0.00000000       0.00000000       0.00000000       0.00000000       0.00000000       0.00000000       0.00000000    2262.00000000    2252.00000000    2253.00000000    2251.00000000    2243.00000000    2234.00000000
      2224.00000000    2213.00000000    2203.00000000    2191.00000000    2180.00000000    2170.00000000    2162.00000000    2153.00000000    2143.00000000    2136.00000000    2130.00000000    2126.00000000    2124.00000000    2109.00000000    2087.00000000    2086.00000000    2098.00000000    2102.00000000    2101.00000000    2101.00000000
      2100.00000000    2099.00000000    2099.00000000    2102.00000000    2101.00000000    2100.00000000    2096.00000000    2088.00000000    2080.00000000    2085.00000000    2086.00000000    2084.00000000    2081.00000000    2072.00000000    2070.00000000    2076.00000000    2085.00000000    2097.00000000    2107.00000000    2113.00000000
      2115.00000000
         0.00000000       0.00000000       0.00000000       0.00000000       0.00000000       0.00000000       0.00000000       0.00000000       0.00000000       0.00000000       0.00000000       0.00000000       0.00000000       0.00000000       0.00000000       0.00000000       0.00000000       0.00000000       0.00000000       0.00000000
         0.00000000       0.00000000       0.00000000       0.00000000       0.00000000       0.00000000       0.00000000       0.00000000       0.00000000       0.00000000       0.00000000       0.00000000    2270.00000000    2256.00000000    2240.00000000    2225.00000000    2228.00000000    2228.00000000    2222.00000000    2213.00000000
      2204.00000000    2193.00000000    2182.00000000    2172.00000000    2162.00000000    2155.00000000    2150.00000000    2146.00000000    2137.00000000    2124.00000000    2112.00000000    2102.00000000    2100.00000000    2090.00000000    2073.00000000    2075.00000000    2085.00000000    2093.00000000    2092.00000000    2093.00000000
      2094.00000000    2094.00000000    2096.00000000    2099.00000000    2100.00000000    2098.00000000    2091.00000000    2085.00000000    2075.00000000    2077.00000000    2078.00000000    2073.00000000    2068.00000000    2065.00000000    2063.00000000    2066.00000000    2074.00000000    2085.00000000    2100.00000000    2108.00000000
      2112.00000000
         0.00000000       0.00000000       0.00000000       0.00000000       0.00000000       0.00000000       0.00000000       0.00000000       0.00000000       0.00000000       0.00000000       0.00000000       0.00000000       0.00000000       0.00000000       0.00000000       0.00000000       0.00000000       0.00000000       0.00000000
         0.00000000       0.00000000       0.00000000       0.00000000       0.00000000       0.00000000       0.00000000       0.00000000       0.00000000    2284.00000000    2273.00000000    2256.00000000    2243.00000000    2231.00000000    2213.00000000    2196.00000000    2201.00000000    2202.00000000    2199.00000000    2192.00000000
      2184.00000000    2174.00000000    2164.00000000    2153.00000000    2145.00000000    2139.00000000    2134.00000000    2129.00000000    2124.00000000    2115.00000000    2103.00000000    2086.00000000    2075.00000000    2066.00000000    2060.00000000    2064.00000000    2074.00000000    2082.00000000    2083.00000000    2084.00000000
      2086.00000000    2090.00000000    2094.00000000    2097.00000000    2097.00000000    2091.00000000    2085.00000000    2078.00000000    2069.00000000    2063.00000000    2066.00000000    2062.00000000    2060.00000000    2060.00000000    2058.00000000    2059.00000000    2064.00000000    2075.00000000    2093.00000000    2102.00000000
      2106.00000000
         0.00000000       0.00000000       0.00000000       0.00000000       0.00000000       0.00000000       0.00000000       0.00000000       0.00000000       0.00000000       0.00000000       0.00000000       0.00000000       0.00000000       0.00000000       0.00000000       0.00000000       0.00000000       0.00000000       0.00000000