# File generated by Flopy version 3.3.3 on 04/05/2021 at 10:12:30.
BEGIN options
  BUDGET  FILEOUT  output/gwf_sagehen-gsf.mvr.bud
END options

BEGIN dimensions
  MAXMVR  9954
  MAXPACKAGES  3
END dimensions

BEGIN packages
  UZF-1
  SFR-1
  DRN-1
END packages

BEGIN period  1
  open/close ../common/mvr_perioddata.txt
END period  1
