# File generated by Flopy version 3.3.3 on 02/05/2021 at 13:07:20.
BEGIN options
  BOUNDNAMES
  SAVE_FLOWS
  BUDGET  FILEOUT  output/gwf_sagehen-gsf.sfr.cbc
  UNIT_CONVERSION   86400.00000000
  MOVER
END options

BEGIN dimensions
  NREACHES  201
END dimensions

BEGIN packagedata
  open/close ../common/sfr_packagedata.txt
END packagedata

BEGIN connectiondata
  open/close ../common/sfr_connectiondata.txt
END connectiondata
